LTspice 24.1.9 for Windows
Circuit: C:\users\riccards\Desktop\Projects\electronics\overload-amp\spice\amp.net
Start Time: Thu Sep 11 15:40:27 2025
solver = Normal
Maximum thread count: 4
tnom = 27
temp = 27
method = trap
Direct Newton iteration failed to find .op point.  (Use ".option noopiter" to skip.)
Starting Gmin stepping
Gmin = 10
Gmin = 1.07374
Gmin = 0.115292
Gmin = 0.0123794
Gmin = 0.00132923
Gmin = 0.000142725
Gmin = 1.5325e-05
Gmin = 1.6455e-06
Gmin = 1.76685e-07
Gmin = 1.89714e-08
Gmin = 2.03704e-09
Gmin = 2.18725e-10
Gmin = 2.34854e-11
Gmin = 2.52173e-12
Gmin = 2.70769e-13
Gmin = 0
Gmin stepping succeeded in finding the operating point.

Total elapsed time: 0.317 seconds.

Files loaded:
C:\users\riccards\Desktop\Projects\electronics\overload-amp\spice\amp.net
C:\users\riccards\AppData\Local\LTspice\lib\cmp\standard.bjt

Fourier components of V(in)
N-Period=1
DC component:1.05045e-08

Harmonic	Frequency	 Fourier 	Normalized	 Phase  	Normalized
 Number 	  [Hz]   	Component	 Component	[degree]	Phase [deg]
    1   	 1.000e+03	 9.999e-01	 1.000e+00	   90.00°	    0.00°
    2   	 2.000e+03	 1.787e-08	 1.787e-08	  -35.48°	 -125.48°
    3   	 3.000e+03	 2.606e-07	 2.606e-07	   85.22°	   -4.78°
    4   	 4.000e+03	 1.792e-08	 1.792e-08	  -82.13°	 -172.13°
    5   	 5.000e+03	 4.280e-07	 4.280e-07	   93.36°	    3.36°
    6   	 6.000e+03	 4.232e-08	 4.232e-08	 -123.45°	 -213.45°
    7   	 7.000e+03	 5.933e-07	 5.933e-07	   98.16°	    8.16°
    8   	 8.000e+03	 7.943e-08	 7.944e-08	 -138.58°	 -228.58°
    9   	 9.000e+03	 7.513e-07	 7.513e-07	  102.80°	   12.80°
Partial Harmonic Distortion: 0.000108%
Total Harmonic Distortion:   0.000000%

Fourier components of  V(out)
N-Period=1
DC component:-0.35865

Harmonic	Frequency	 Fourier 	Normalized	 Phase  	Normalized
 Number 	  [Hz]   	Component	 Component	[degree]	Phase [deg]
    1   	 1.000e+03	 1.999e+01	 1.000e+00	   90.00°	    0.00°
    2   	 2.000e+03	 2.933e-03	 1.467e-04	   -1.74°	  -91.74°
    3   	 3.000e+03	 9.248e-04	 4.627e-05	   90.99°	    0.98°
    4   	 4.000e+03	 4.167e-04	 2.085e-05	 -179.64°	 -269.64°
    5   	 5.000e+03	 4.784e-04	 2.393e-05	  -96.53°	 -186.53°
    6   	 6.000e+03	 8.659e-05	 4.332e-06	 -172.68°	 -262.68°
    7   	 7.000e+03	 3.524e-04	 1.763e-05	  -98.54°	 -188.55°
    8   	 8.000e+03	 2.191e-05	 1.096e-06	 -149.79°	 -239.79°
    9   	 9.000e+03	 2.460e-04	 1.230e-05	 -102.17°	 -192.17°
Partial Harmonic Distortion: 0.015862%
Total Harmonic Distortion:   0.000000%

